<?xml version="1.0" encoding="UTF-8"?>

<!-- generated on 2025-05-17 19:15:05 by Eclipse SUMO netedit Version 1.23.1
<neteditConfiguration xmlns:xsi="http://www.w3.org/2001/XMLSchema-instance" xsi:noNamespaceSchemaLocation="http://sumo.dlr.de/xsd/neteditConfiguration.xsd">

    <input>
        <sumo-net-file value="C:\Users\Ronay\Sumo\ikiserit\network.net.xml"/>
    </input>

    <output>
        <output-file value="C:\Users\Ronay\Sumo\ikiserit\network.net.xml"/>
        <output.street-names value="true"/>
    </output>

    <processing>
        <offset.disable-normalization value="true"/>
    </processing>

    <junctions>
        <no-turnarounds value="true"/>
    </junctions>

    <netedit>
        <new-network value="false"/>
    </netedit>

</neteditConfiguration>
-->

<net version="1.20" junctionCornerDetail="5" limitTurnSpeed="5.50" xmlns:xsi="http://www.w3.org/2001/XMLSchema-instance" xsi:noNamespaceSchemaLocation="http://sumo.dlr.de/xsd/net_file.xsd">

    <location netOffset="0.00,0.00" convBoundary="-100.00,-100.00,100.00,100.00" origBoundary="10000000000.00,10000000000.00,-10000000000.00,-10000000000.00" projParameter="!"/>

    <edge id=":J5_0" function="internal">
        <lane id=":J5_0_0" index="0" speed="13.89" length="4.96" shape="-4.80,10.95 -4.94,9.53 -5.32,8.61 -5.88,7.72 -6.55,6.40"/>
        <lane id=":J5_0_1" index="1" speed="13.89" length="7.70" shape="-1.60,10.95 -1.80,8.73 -2.33,7.27 -3.15,5.87 -4.16,3.81"/>
    </edge>
    <edge id=":J5_2" function="internal">
        <lane id=":J5_2_0" index="0" speed="5.74" length="4.76" shape="6.21,6.63 5.59,7.12 5.15,8.00 4.89,9.28 4.80,10.95"/>
        <lane id=":J5_2_1" index="1" speed="6.66" length="6.65" shape="6.21,6.63 4.19,7.61 2.75,8.66 1.89,9.78 1.60,10.95"/>
    </edge>
    <edge id=":J5_4" function="internal">
        <lane id=":J5_4_0" index="0" speed="7.94" length="11.28" shape="6.21,6.63 1.36,8.29 -2.39,8.80 -5.02,8.17 -6.55,6.40"/>
        <lane id=":J5_4_1" index="1" speed="6.36" length="11.28" shape="3.62,4.23 0.70,5.21 -1.57,5.47 -3.19,5.00 -4.16,3.81"/>
    </edge>
    <edge id=":J6_0" function="internal">
        <lane id=":J6_0_0" index="0" speed="13.89" length="4.96" shape="10.95,4.80 9.53,4.94 8.61,5.32 7.72,5.88 6.40,6.55"/>
        <lane id=":J6_0_1" index="1" speed="13.89" length="7.70" shape="10.95,1.60 8.73,1.80 7.27,2.33 5.87,3.15 3.81,4.16"/>
    </edge>
    <edge id=":J6_2" function="internal">
        <lane id=":J6_2_0" index="0" speed="5.74" length="4.76" shape="6.63,-6.21 7.12,-5.59 8.00,-5.15 9.28,-4.89 10.95,-4.80"/>
        <lane id=":J6_2_1" index="1" speed="6.66" length="6.65" shape="6.63,-6.21 7.61,-4.19 8.66,-2.75 9.78,-1.89 10.95,-1.60"/>
    </edge>
    <edge id=":J6_4" function="internal">
        <lane id=":J6_4_0" index="0" speed="7.94" length="11.28" shape="6.63,-6.21 8.29,-1.36 8.80,2.39 8.17,5.02 6.40,6.55"/>
        <lane id=":J6_4_1" index="1" speed="6.36" length="11.28" shape="4.23,-3.62 5.21,-0.70 5.47,1.57 5.00,3.19 3.81,4.16"/>
    </edge>
    <edge id=":J7_0" function="internal">
        <lane id=":J7_0_0" index="0" speed="13.89" length="4.96" shape="4.80,-10.95 4.94,-9.53 5.32,-8.61 5.88,-7.72 6.55,-6.40"/>
        <lane id=":J7_0_1" index="1" speed="13.89" length="7.70" shape="1.60,-10.95 1.80,-8.73 2.33,-7.27 3.15,-5.87 4.16,-3.81"/>
    </edge>
    <edge id=":J7_2" function="internal">
        <lane id=":J7_2_0" index="0" speed="5.74" length="4.76" shape="-6.21,-6.63 -5.59,-7.12 -5.15,-8.00 -4.89,-9.28 -4.80,-10.95"/>
        <lane id=":J7_2_1" index="1" speed="6.66" length="6.65" shape="-6.21,-6.63 -4.19,-7.61 -2.75,-8.66 -1.89,-9.78 -1.60,-10.95"/>
    </edge>
    <edge id=":J7_4" function="internal">
        <lane id=":J7_4_0" index="0" speed="7.94" length="11.28" shape="-6.21,-6.63 -1.36,-8.29 2.39,-8.80 5.02,-8.17 6.55,-6.40"/>
        <lane id=":J7_4_1" index="1" speed="6.36" length="11.28" shape="-3.62,-4.23 -0.70,-5.21 1.57,-5.47 3.19,-5.00 4.16,-3.81"/>
    </edge>
    <edge id=":J8_0" function="internal">
        <lane id=":J8_0_0" index="0" speed="5.74" length="4.76" shape="-6.63,6.21 -7.12,5.59 -8.00,5.15 -9.28,4.89 -10.95,4.80"/>
        <lane id=":J8_0_1" index="1" speed="6.66" length="6.65" shape="-6.63,6.21 -7.61,4.19 -8.66,2.75 -9.78,1.89 -10.95,1.60"/>
    </edge>
    <edge id=":J8_2" function="internal">
        <lane id=":J8_2_0" index="0" speed="7.94" length="11.28" shape="-6.63,6.21 -8.29,1.36 -8.80,-2.39 -8.17,-5.02 -6.40,-6.55"/>
        <lane id=":J8_2_1" index="1" speed="6.36" length="11.28" shape="-4.23,3.62 -5.21,0.70 -5.47,-1.57 -5.00,-3.19 -3.81,-4.16"/>
    </edge>
    <edge id=":J8_4" function="internal">
        <lane id=":J8_4_0" index="0" speed="13.89" length="4.96" shape="-10.95,-4.80 -9.53,-4.94 -8.61,-5.32 -7.72,-5.88 -6.40,-6.55"/>
        <lane id=":J8_4_1" index="1" speed="13.89" length="7.70" shape="-10.95,-1.60 -8.73,-1.80 -7.27,-2.33 -5.87,-3.15 -3.81,-4.16"/>
    </edge>

    <edge id="-E0" from="J5" to="J0" priority="-1">
        <lane id="-E0_0" index="0" speed="13.89" length="89.05" shape="4.80,10.95 4.80,100.00"/>
        <lane id="-E0_1" index="1" speed="13.89" length="89.05" shape="1.60,10.95 1.60,100.00"/>
    </edge>
    <edge id="-E1" from="J2" to="J8" priority="-1">
        <lane id="-E1_0" index="0" speed="13.89" length="89.05" shape="-100.00,-4.80 -10.95,-4.80"/>
        <lane id="-E1_1" index="1" speed="13.89" length="89.05" shape="-100.00,-1.60 -10.95,-1.60"/>
    </edge>
    <edge id="-E2" from="J3" to="J7" priority="-1">
        <lane id="-E2_0" index="0" speed="13.89" length="89.05" shape="4.80,-100.00 4.80,-10.95"/>
        <lane id="-E2_1" index="1" speed="13.89" length="89.05" shape="1.60,-100.00 1.60,-10.95"/>
    </edge>
    <edge id="-E3" from="J4" to="J6" priority="-1">
        <lane id="-E3_0" index="0" speed="13.89" length="89.05" shape="100.00,4.80 10.95,4.80"/>
        <lane id="-E3_1" index="1" speed="13.89" length="89.05" shape="100.00,1.60 10.95,1.60"/>
    </edge>
    <edge id="E0" from="J0" to="J5" priority="-1">
        <lane id="E0_0" index="0" speed="13.89" length="89.05" shape="-4.80,100.00 -4.80,10.95"/>
        <lane id="E0_1" index="1" speed="13.89" length="89.05" shape="-1.60,100.00 -1.60,10.95"/>
    </edge>
    <edge id="E1" from="J8" to="J2" priority="-1">
        <lane id="E1_0" index="0" speed="13.89" length="89.05" shape="-10.95,4.80 -100.00,4.80"/>
        <lane id="E1_1" index="1" speed="13.89" length="89.05" shape="-10.95,1.60 -100.00,1.60"/>
    </edge>
    <edge id="E2" from="J7" to="J3" priority="-1">
        <lane id="E2_0" index="0" speed="13.89" length="89.05" shape="-4.80,-10.95 -4.80,-100.00"/>
        <lane id="E2_1" index="1" speed="13.89" length="89.05" shape="-1.60,-10.95 -1.60,-100.00"/>
    </edge>
    <edge id="E3" from="J6" to="J4" priority="-1">
        <lane id="E3_0" index="0" speed="13.89" length="89.05" shape="10.95,-4.80 100.00,-4.80"/>
        <lane id="E3_1" index="1" speed="13.89" length="89.05" shape="10.95,-1.60 100.00,-1.60"/>
    </edge>
    <edge id="E4" from="J6" to="J5" priority="-1" shape="4.00,0.00 2.83,2.83 0.00,4.00">
        <lane id="E4_0" index="0" speed="13.89" length="0.20" shape="6.40,6.55 6.21,6.63"/>
        <lane id="E4_1" index="1" speed="13.89" length="0.20" shape="3.81,4.16 3.62,4.23"/>
    </edge>
    <edge id="E5" from="J7" to="J6" priority="-1" shape="0.00,-4.00 2.83,-2.83 4.00,0.00">
        <lane id="E5_0" index="0" speed="13.89" length="0.20" shape="6.55,-6.40 6.63,-6.21"/>
        <lane id="E5_1" index="1" speed="13.89" length="0.20" shape="4.16,-3.81 4.23,-3.62"/>
    </edge>
    <edge id="E6" from="J8" to="J7" priority="-1" shape="-4.00,0.00 -2.83,-2.83 0.00,-4.00">
        <lane id="E6_0" index="0" speed="13.89" length="0.20" shape="-6.40,-6.55 -6.21,-6.63"/>
        <lane id="E6_1" index="1" speed="13.89" length="0.20" shape="-3.81,-4.16 -3.62,-4.23"/>
    </edge>
    <edge id="E7" from="J5" to="J8" priority="-1" shape="0.00,4.00 -2.83,2.83 -4.00,0.00">
        <lane id="E7_0" index="0" speed="13.89" length="0.20" shape="-6.55,6.40 -6.63,6.21"/>
        <lane id="E7_1" index="1" speed="13.89" length="0.20" shape="-4.16,3.81 -4.23,3.62"/>
    </edge>

    <tlLogic id="J8_joined" type="static" programID="0" offset="0">
        <phase duration="42" state="GGGGrrrrGGGGGGGGrrGGGGrr"/>
        <phase duration="3"  state="yyGGrrrrGGyyyyGGrrGGyyrr"/>
        <phase duration="42" state="rrGGGGGGGGrrrrGGGGGGrrGG"/>
        <phase duration="3"  state="rrGGyyyyGGrrrrGGyyGGrryy"/>
    </tlLogic>

    <junction id="J0" type="dead_end" x="0.00" y="100.00" incLanes="-E0_0 -E0_1" intLanes="" shape="0.00,100.00 6.40,100.00 0.00,100.00"/>
    <junction id="J2" type="dead_end" x="-100.00" y="0.00" incLanes="E1_0 E1_1" intLanes="" shape="-100.00,0.00 -100.00,6.40 -100.00,0.00"/>
    <junction id="J3" type="dead_end" x="0.00" y="-100.00" incLanes="E2_0 E2_1" intLanes="" shape="0.00,-100.00 -6.40,-100.00 0.00,-100.00"/>
    <junction id="J4" type="dead_end" x="100.00" y="0.00" incLanes="E3_0 E3_1" intLanes="" shape="100.00,0.00 100.00,-6.40 100.00,0.00"/>
    <junction id="J5" type="traffic_light" x="0.00" y="4.00" incLanes="E0_0 E0_1 E4_0 E4_1" intLanes=":J5_0_0 :J5_0_1 :J5_2_0 :J5_2_1 :J5_4_0 :J5_4_1" shape="-6.40,10.95 6.40,10.95 6.67,9.26 6.96,8.70 7.33,8.16 7.76,7.50 8.20,6.59 4.32,-0.77 -4.32,-0.77 -8.20,6.59 -7.33,8.16 -6.96,8.70 -6.67,9.26 -6.47,9.96">
        <request index="0" response="010000" foes="010000" cont="0"/>
        <request index="1" response="110000" foes="110000" cont="0"/>
        <request index="2" response="000000" foes="000000" cont="0"/>
        <request index="3" response="000000" foes="000000" cont="0"/>
        <request index="4" response="000000" foes="000011" cont="0"/>
        <request index="5" response="000000" foes="000010" cont="0"/>
    </junction>
    <junction id="J6" type="traffic_light" x="4.00" y="0.00" incLanes="-E3_0 -E3_1 E5_0 E5_1" intLanes=":J6_0_0 :J6_0_1 :J6_2_0 :J6_2_1 :J6_4_0 :J6_4_1" shape="10.95,6.40 10.95,-6.40 9.26,-6.67 8.70,-6.96 8.16,-7.33 7.50,-7.76 6.59,-8.20 -0.77,-4.32 -0.77,4.32 6.59,8.20 8.16,7.33 8.70,6.96 9.26,6.67 9.96,6.47">
        <request index="0" response="010000" foes="010000" cont="0"/>
        <request index="1" response="110000" foes="110000" cont="0"/>
        <request index="2" response="000000" foes="000000" cont="0"/>
        <request index="3" response="000000" foes="000000" cont="0"/>
        <request index="4" response="000000" foes="000011" cont="0"/>
        <request index="5" response="000000" foes="000010" cont="0"/>
    </junction>
    <junction id="J7" type="traffic_light" x="0.00" y="-4.00" incLanes="-E2_0 -E2_1 E6_0 E6_1" intLanes=":J7_0_0 :J7_0_1 :J7_2_0 :J7_2_1 :J7_4_0 :J7_4_1" shape="4.32,0.77 8.20,-6.59 7.33,-8.16 6.96,-8.70 6.67,-9.26 6.47,-9.96 6.40,-10.95 -6.40,-10.95 -6.67,-9.26 -6.96,-8.70 -7.33,-8.16 -7.76,-7.50 -8.20,-6.59 -4.32,0.77">
        <request index="0" response="010000" foes="010000" cont="0"/>
        <request index="1" response="110000" foes="110000" cont="0"/>
        <request index="2" response="000000" foes="000000" cont="0"/>
        <request index="3" response="000000" foes="000000" cont="0"/>
        <request index="4" response="000000" foes="000011" cont="0"/>
        <request index="5" response="000000" foes="000010" cont="0"/>
    </junction>
    <junction id="J8" type="traffic_light" x="-4.00" y="0.00" incLanes="E7_0 E7_1 -E1_0 -E1_1" intLanes=":J8_0_0 :J8_0_1 :J8_2_0 :J8_2_1 :J8_4_0 :J8_4_1" shape="-6.59,8.20 0.77,4.32 0.77,-4.32 -6.59,-8.20 -8.16,-7.33 -8.70,-6.96 -9.26,-6.67 -9.96,-6.47 -10.95,-6.40 -10.95,6.40 -9.26,6.67 -8.70,6.96 -8.16,7.33 -7.50,7.76">
        <request index="0" response="000000" foes="000000" cont="0"/>
        <request index="1" response="000000" foes="000000" cont="0"/>
        <request index="2" response="000000" foes="110000" cont="0"/>
        <request index="3" response="000000" foes="100000" cont="0"/>
        <request index="4" response="000100" foes="000100" cont="0"/>
        <request index="5" response="001100" foes="001100" cont="0"/>
    </junction>

    <connection from="-E1" to="E6" fromLane="0" toLane="0" via=":J8_4_0" tl="J8_joined" linkIndex="22" dir="r" state="o"/>
    <connection from="-E1" to="E6" fromLane="1" toLane="1" via=":J8_4_1" tl="J8_joined" linkIndex="23" dir="r" state="o"/>
    <connection from="-E2" to="E5" fromLane="0" toLane="0" via=":J7_0_0" tl="J8_joined" linkIndex="12" dir="r" state="o"/>
    <connection from="-E2" to="E5" fromLane="1" toLane="1" via=":J7_0_1" tl="J8_joined" linkIndex="13" dir="r" state="o"/>
    <connection from="-E3" to="E4" fromLane="0" toLane="0" via=":J6_0_0" tl="J8_joined" linkIndex="6" dir="r" state="o"/>
    <connection from="-E3" to="E4" fromLane="1" toLane="1" via=":J6_0_1" tl="J8_joined" linkIndex="7" dir="r" state="o"/>
    <connection from="E0" to="E7" fromLane="0" toLane="0" via=":J5_0_0" tl="J8_joined" linkIndex="0" dir="r" state="o"/>
    <connection from="E0" to="E7" fromLane="1" toLane="1" via=":J5_0_1" tl="J8_joined" linkIndex="1" dir="r" state="o"/>
    <connection from="E4" to="-E0" fromLane="0" toLane="0" via=":J5_2_0" tl="J8_joined" linkIndex="2" dir="r" state="O"/>
    <connection from="E4" to="-E0" fromLane="0" toLane="1" via=":J5_2_1" tl="J8_joined" linkIndex="3" dir="r" state="O"/>
    <connection from="E4" to="E7" fromLane="0" toLane="0" via=":J5_4_0" tl="J8_joined" linkIndex="4" dir="s" state="O"/>
    <connection from="E4" to="E7" fromLane="1" toLane="1" via=":J5_4_1" tl="J8_joined" linkIndex="5" dir="s" state="O"/>
    <connection from="E5" to="E3" fromLane="0" toLane="0" via=":J6_2_0" tl="J8_joined" linkIndex="8" dir="r" state="O"/>
    <connection from="E5" to="E3" fromLane="0" toLane="1" via=":J6_2_1" tl="J8_joined" linkIndex="9" dir="r" state="O"/>
    <connection from="E5" to="E4" fromLane="0" toLane="0" via=":J6_4_0" tl="J8_joined" linkIndex="10" dir="s" state="O"/>
    <connection from="E5" to="E4" fromLane="1" toLane="1" via=":J6_4_1" tl="J8_joined" linkIndex="11" dir="s" state="O"/>
    <connection from="E6" to="E2" fromLane="0" toLane="0" via=":J7_2_0" tl="J8_joined" linkIndex="14" dir="r" state="O"/>
    <connection from="E6" to="E2" fromLane="0" toLane="1" via=":J7_2_1" tl="J8_joined" linkIndex="15" dir="r" state="O"/>
    <connection from="E6" to="E5" fromLane="0" toLane="0" via=":J7_4_0" tl="J8_joined" linkIndex="16" dir="s" state="O"/>
    <connection from="E6" to="E5" fromLane="1" toLane="1" via=":J7_4_1" tl="J8_joined" linkIndex="17" dir="s" state="O"/>
    <connection from="E7" to="E1" fromLane="0" toLane="0" via=":J8_0_0" tl="J8_joined" linkIndex="18" dir="r" state="O"/>
    <connection from="E7" to="E1" fromLane="0" toLane="1" via=":J8_0_1" tl="J8_joined" linkIndex="19" dir="r" state="O"/>
    <connection from="E7" to="E6" fromLane="0" toLane="0" via=":J8_2_0" tl="J8_joined" linkIndex="20" dir="s" state="O"/>
    <connection from="E7" to="E6" fromLane="1" toLane="1" via=":J8_2_1" tl="J8_joined" linkIndex="21" dir="s" state="O"/>

    <connection from=":J5_0" to="E7" fromLane="0" toLane="0" dir="r" state="M"/>
    <connection from=":J5_0" to="E7" fromLane="1" toLane="1" dir="r" state="M"/>
    <connection from=":J5_2" to="-E0" fromLane="0" toLane="0" dir="r" state="M"/>
    <connection from=":J5_2" to="-E0" fromLane="1" toLane="1" dir="r" state="M"/>
    <connection from=":J5_4" to="E7" fromLane="0" toLane="0" dir="s" state="M"/>
    <connection from=":J5_4" to="E7" fromLane="1" toLane="1" dir="s" state="M"/>
    <connection from=":J6_0" to="E4" fromLane="0" toLane="0" dir="r" state="M"/>
    <connection from=":J6_0" to="E4" fromLane="1" toLane="1" dir="r" state="M"/>
    <connection from=":J6_2" to="E3" fromLane="0" toLane="0" dir="r" state="M"/>
    <connection from=":J6_2" to="E3" fromLane="1" toLane="1" dir="r" state="M"/>
    <connection from=":J6_4" to="E4" fromLane="0" toLane="0" dir="s" state="M"/>
    <connection from=":J6_4" to="E4" fromLane="1" toLane="1" dir="s" state="M"/>
    <connection from=":J7_0" to="E5" fromLane="0" toLane="0" dir="r" state="M"/>
    <connection from=":J7_0" to="E5" fromLane="1" toLane="1" dir="r" state="M"/>
    <connection from=":J7_2" to="E2" fromLane="0" toLane="0" dir="r" state="M"/>
    <connection from=":J7_2" to="E2" fromLane="1" toLane="1" dir="r" state="M"/>
    <connection from=":J7_4" to="E5" fromLane="0" toLane="0" dir="s" state="M"/>
    <connection from=":J7_4" to="E5" fromLane="1" toLane="1" dir="s" state="M"/>
    <connection from=":J8_0" to="E1" fromLane="0" toLane="0" dir="r" state="M"/>
    <connection from=":J8_0" to="E1" fromLane="1" toLane="1" dir="r" state="M"/>
    <connection from=":J8_2" to="E6" fromLane="0" toLane="0" dir="s" state="M"/>
    <connection from=":J8_2" to="E6" fromLane="1" toLane="1" dir="s" state="M"/>
    <connection from=":J8_4" to="E6" fromLane="0" toLane="0" dir="r" state="M"/>
    <connection from=":J8_4" to="E6" fromLane="1" toLane="1" dir="r" state="M"/>

    <roundabout nodes="J5 J6 J7 J8" edges="E4 E5 E6 E7"/>

</net>
