<?xml version="1.0" encoding="UTF-8"?>
<routes xmlns:xsi="http://www.w3.org/2001/XMLSchema-instance" xsi:noNamespaceSchemaLocation="http://sumo.dlr.de/xsd/routes_file.xsd">    <!-- Define vehicle types -->
    <vType id="car" accel="2.6" decel="4.5" sigma="0.5" length="5" minGap="2.5" maxSpeed="50" color="1,0,0"/>
    <vType id="bus" accel="2.0" decel="4.0" sigma="0.5" length="12" minGap="3.0" maxSpeed="40" color="0,1,0"/>
    <vType id="motorcycle" accel="3.0" decel="5.0" sigma="0.6" length="2" minGap="1.5" maxSpeed="55" color="0,0,1"/>
    <vType id="truck" accel="1.5" decel="3.5" sigma="0.5" length="15" minGap="4.0" maxSpeed="30" color="1,1,0"/>
      <!-- Define routes -->
    <route id="route_1" edges="E0 E7 E6 E5 E4" color="1,1,0"/>
    <route id="route_2" edges="-E1 E6 E5 E3" color="0,1,1"/>
    <route id="route_3" edges="-E2 E5 E4 E7 E1" color="1,0,1"/>
    <route id="route_4" edges="-E3 E4 E7 E6 E2" color="0,0,1"/>
    
    <!-- Define vehicles -->
    <vehicle id="car_1" type="car" route="route_1" depart="0"/>
    <vehicle id="car_2" type="car" route="route_1" depart="5"/>
    <vehicle id="bus_1" type="bus" route="route_2" depart="10"/>
    <vehicle id="car_3" type="car" route="route_3" depart="15"/>
    <vehicle id="car_4" type="car" route="route_4" depart="20"/>
    
    <!-- Define flows (continuous vehicle insertion) -->
    <flow id="flow_1" type="car" route="route_1" begin="25" end="100" period="10"/>
    <flow id="flow_2" type="bus" route="route_2" begin="30" end="100" period="20"/>
</routes>
